shortcurrent/test6.m
% data for EPRI of China 6-machine-22-bus Test case

%(bus#)( volt )( ang  )(  p )(  q )(bus type)(是否机组1是0否)(Xd'')
bus=[
   1   1.0000   0.00   0.0000   0.0000    3   1  0.010;
   2   1.0000   0.00   6.0000   3.2000    1   1  0.010;
   3   1.0000   0.00   3.1000   0.0000    2   1  0.010;
   4   1.0000   0.00   1.6000   0.7000    1   1  0.010;
   5   1.0000   0.00   4.3000   3.3400    1   1  0.010;
   6   1.0000   0.00  -0.0100   0.0000    2   1  0.010;
   7   1.0000   0.00   0.0000   0.0000    1   0  0.000;
   8   1.0000   0.00  -2.8700  -1.4400    1   0  0.000;
   9   1.0000   0.00  -3.7600  -2.2100    1   0  0.000;
  10   1.0000   0.00   0.0000   0.0000    1   0  0.000;
  11   1.0000   0.00   0.0000   0.0000    1   0  0.000;
  12   1.0000   0.00   0.0000   0.0000    1   0  0.000;
  13   1.0000   0.00   0.0000   0.0000    1   0  0.000;
  14   1.0000   0.00   0.0000   0.0000    1   0  0.000;
  15   1.0000   0.00   0.0000   0.0000    1   0  0.000;
  16   1.0000   0.00  -5.0000  -2.9000    1   0  0.000;
  17   1.0000   0.00   0.0000   0.0000    1   0  0.000;
  18   1.0000   0.00  -4.3000  -2.6000    1   0  0.000;
  19   1.0000   0.00  -0.8640  -0.6620    1   0  0.000;
  20   1.0000   0.00  -0.7190  -0.4740    1   0  0.000;
  21   1.0000   0.00  -0.7000  -0.5000    1   0  0.000;
  22   1.0000   0.00  -2.2650  -1.6900    1   0  0.000];

%b#1 b#2( res  )(  rea  )(charg )(tap )(phase)
line = [
    1    7         0    0.0150         0         0     1.050;
    2    9         0    0.0217         0         0     1.075;
    3   22         0    0.0124         0         0     1.100;
    4   19         0    0.0640         0         0     1.025;
    5   18         0    0.0375         0         0     1.050;
    6   17         0    0.0337         0         0     1.000;
    7    8    0.0106    0.0740         0         0         0;
    7    9    0.0147    0.1040         0         0         0;
    8    9    0.0034    0.0131         0         0         0;
    9   10         0   -0.0020         0         0     1.000;
    9   22    0.0559    0.2180         0    0.3908/2       0;
   10   11         0    0.0180         0         0     1.000;
   12   15         0    0.0180         0         0     1.000;
   12    0         0         0         0   -1/0.7318       0;
   12   13    0.00245    0.0255         0    2.7900/2       0;
   13   17         0    0.0100         0         0     1.000;
   14   15         0   -0.0020         0         0     1.000;
   14   19    0.0034    0.0200         0         0         0;
   17   16         0    0.0010         0         0     1.027;
   16   19    0.0578    0.2180         0    0.3774/2       0;
   16   20    0.0165    0.0662         0    0.4706/2       0;
   16   21    0.0374    0.1780         0    0.3280/2       0;
   16   18    0.0033    0.0333         0         0         0;
   19   21    0.0114    0.0370         0         0         0;
   20   22    0.0214    0.0859         0    0.6016/2       0;
   21   22    0.0150    0.0607         0    0.4396/2       0;
   22    8    0.0537    0.1900         0    0.3306/2       0;
   11   12    0.0033    0.0343         0    1.8797       0;
   16    0         0         0         0    1/1.9930       0;
   11    0         0         0         0   -1/0.7318       0;
   12    0         0         0         0   -1/0.7318       0];


% 故障参数
% 故障支路首端节点 故障支路末端短路 （距首端距离0-1）
fault = [
   1   7   0.3];

% 计算参数
% 是否平启动（1为是，0为否）
calcSettings = [
    1];

disp('测试系统：中国电科院六机二十二节点系统.');
disp('故障类型：三相短路故障');
disp('故障点：支路1-7靠近节点1侧');
disp('短路电阻：0');
disp('计算类型：平启动');
